14

C -0.276590 -0.124358 -0.175018
C -0.227144 -0.095026 1.189805
Cl 2.170842 0.138938 -0.998543
Cl -3.126532 0.437407 1.592090
H -1.710840 0.096954 1.236649
H -0.339325 0.831221 -0.684677
H -0.155016 -1.046593 1.719665
C -0.682447 -1.333239 -0.948158
H -0.235991 -1.307038 -1.940624
H -0.361470 -2.246933 -0.445163
H -1.775710 -1.352576 -1.048851
N 0.298982 1.042599 1.895432
H -0.407383 1.759609 2.013201
H 1.055271 1.413186 1.326439
