14
Coordinates from ORCA-job run
  C   -0.27701168479674     -0.12431578288919     -0.17484784904034
  C   -0.22697929996022     -0.09505258582714      1.18941321273102
  Cl  2.17193783284455      0.13915364782114     -0.99901741455866
  Cl  -3.12892542945734      0.43805010185012      1.59453633887480
  H   -1.71295293395582      0.09732049380527      1.23746170984913
  H   -0.33870484900477      0.83115553025530     -0.68438189605713
  H   -0.15538324525542     -1.04651425678796      1.71946160055452
  C   -0.68212030404370     -1.33325952077043     -0.94847367778334
  H   -0.23487383114341     -1.30707582462633     -1.94054978191493
  H   -0.36118806007122     -2.24687797031935     -0.44527124909553
  H   -1.77535280263953     -1.35328019798862     -1.04973928158943
  N   0.29942520579965      1.04240429732592      1.89501998258651
  H   -0.40679524104830      1.75954938105110      2.01278761368590
  H   1.05557164273226      1.41289368710017      1.32584769175747
