14
Coordinates from ORCA-job run
  C   -0.13596304988720     -0.12666695568573     -0.24354872328069
  C   -0.09356013974454     -0.22119564335862      1.27632756222216
  Cl  1.54810476560787      0.19774902278972     -0.86216969234148
  Cl  -3.02021463102956      1.44315815422361      0.63306094690044
  H   -1.07536885028930     -0.58559588669221      1.58645937828855
  H   -0.73078637537091      0.74167312656966     -0.52030162165711
  H   0.66431249359157     -0.96170946607642      1.56320339589426
  C   -0.67866264789183     -1.37526462958436     -0.90088465611715
  H   -0.62943088352986     -1.30646265317071     -1.98937159035591
  H   -0.12200258669065     -2.26151826876403     -0.58152629237914
  H   -1.72652442018895     -1.47349108046758     -0.60680785451268
  N   0.13946451191128      1.02703891549094      1.98552063187617
  H   -0.69052432792226      1.59426398874730      1.82619649489101
  H   0.92637114143436      1.50416837597843      1.55977502057158
