14

C -0.277682 -0.124355 -0.174379
C -0.226333 -0.095162 1.189543
Cl 2.171218 0.139000 -0.998690
Cl -3.126475 0.437385 1.592086
H -1.720175 0.098896 1.237007
H -0.338394 0.831115 -0.684535
H -0.156467 -1.046460 1.720240
C -0.682622 -1.333293 -0.948126
H -0.235226 -1.306896 -1.940186
H -0.361495 -2.246957 -0.445098
H -1.775773 -1.353520 -1.049961
N 0.298938 1.042566 1.895454
H -0.407267 1.759784 2.013077
H 1.055112 1.413177 1.326210
