11
product 1
C -0.298749 -0.451286 -0.14412
C 0.060164 -0.200017 1.144527
H 0.076204 0.224049 -0.911891
H -0.314245 -0.860831 1.931804
C -0.970911 -1.731593 -0.554988
H -0.274325 -2.413892 -1.055872
H -1.377828 -2.25664 0.315467
H -1.800615 -1.553795 -1.246663
N 0.890242 0.795551 1.57177
H 0.685851 1.177655 2.480844
H 1.150824 1.50455 0.873329
