11
Coordinates from ORCA-job run
  C   -0.19460484276313     -0.51783545028111     -0.13603906337003
  C   0.08215301767348     -0.22112220542925      1.14413973121299
  H   0.18647462956794      0.13378536830715     -0.92290966649112
  H   -0.28322489601406     -0.86651124200967      1.94128247722239
  C   -0.97749857914155     -1.72662514089279     -0.55529153879388
  H   -0.37578826814901     -2.40417276584938     -1.16939271869057
  H   -1.32323882512046     -2.28928565630723      0.31554747229150
  H   -1.85667533977146     -1.45289063216316     -1.14666808007240
  N   0.90926434831760      0.81656349550142      1.59555508546210
  H   0.58067071585945      1.24338858576855      2.44857076963307
  H   1.07908003954120      1.51845664335547      0.88941253159596
