14

C -0.273314 -0.124367 -0.176935
C -0.229578 -0.094618 1.190589
Cl 2.169712 0.138753 -0.998102
Cl -3.126705 0.437473 1.592102
H -1.682837 0.091131 1.235574
H -0.342119 0.831541 -0.685104
H -0.150664 -1.046989 1.717942
C -0.681920 -1.333075 -0.948256
H -0.238286 -1.307467 -1.941936
H -0.361395 -2.246858 -0.445355
H -1.775522 -1.349747 -1.045522
N 0.299114 1.042698 1.895367
H -0.407729 1.759084 2.013575
H 1.055745 1.413216 1.327125
