14
Coordinates from ORCA-job run
  C   -0.27352487556933     -0.12430156928386     -0.17685632287768
  C   -0.22957052877293     -0.09459702773331      1.19032719526231
  Cl  2.17029758920339      0.13880780202811     -0.99829724533834
  Cl  -3.12751401828824      0.43767003201088      1.59349929685011
  H   -1.68382702056475      0.09129439384533      1.23602938569002
  H   -0.34176708570438      0.83157793370375     -0.68494427839460
  H   -0.15097847351770     -1.04695091851213      1.71775122146656
  C   -0.68174794157396     -1.33305933343378     -0.94842961419185
  H   -0.23762336338166     -1.30763622957129     -1.94188318730482
  H   -0.36137236391878     -2.24680375545854     -0.44533715962882
  H   -1.77533730436514     -1.34997297332773     -1.04604795169275
  N   0.29921699531754      1.04261210402103      1.89513095219931
  H   -0.40753541064158      1.75908638059992      2.01333634268302
  H   1.05578580177753      1.41304816111164      1.32678536527753
