14

C -0.279866 -0.124350 -0.173102
C -0.224711 -0.095434 1.189021
Cl 2.171971 0.139124 -0.998983
Cl -3.126360 0.437340 1.592079
H -1.738844 0.102778 1.237724
H -0.336531 0.830902 -0.684251
H -0.159368 -1.046196 1.721389
C -0.682973 -1.333403 -0.948061
H -0.233696 -1.306610 -1.939312
H -0.361545 -2.247007 -0.444970
H -1.775899 -1.355406 -1.052181
N 0.298850 1.042500 1.895497
H -0.407036 1.760134 2.012828
H 1.054796 1.413157 1.325753
