14
Coordinates from ORCA-job run
  C   -0.25767228740359     -0.12448715158879     -0.18698984899655
  C   -0.24002385680941     -0.09267317045492      1.19520573504721
  Cl  2.16344675792155      0.13702784543934     -0.99517462444341
  Cl  -3.13121592629007      0.43623522980688      1.59096392465443
  H   -1.56072037040912      0.06574874010635      1.23243502573856
  H   -0.35482365841431      0.83267084501406     -0.68901225169924
  H   -0.12980001088164     -1.04855143280905      1.71100385073183
  C   -0.67957941244239     -1.33248743241749     -0.94914410541232
  H   -0.24900469323641     -1.31038565424288     -1.94849280413056
  H   -0.36177144242336     -2.24670316484063     -0.44634732324842
  H   -1.77454708225271     -1.33548884656996     -1.03093931600251
  N   0.30065141120232      1.04379022146010      1.89561687379179
  H   -0.40879813855964      1.75694619230612      2.01549106465983
  H   1.05907370999877      1.41450477879087      1.33131679930935
