14

C -0.260210 -0.124400 -0.184600
C -0.239311 -0.092986 1.193725
Cl 2.165195 0.138012 -0.996341
Cl -3.127396 0.437740 1.592147
H -1.570822 0.067836 1.231274
H -0.353295 0.832820 -0.686811
H -0.133256 -1.048574 1.711047
C -0.679815 -1.332419 -0.948645
H -0.247466 -1.309180 -1.947184
H -0.361095 -2.246561 -0.446126
H -1.774767 -1.338428 -1.032205
N 0.299642 1.043094 1.895107
H -0.409116 1.756984 2.015070
H 1.057642 1.413333 1.329869
