14
Coordinates from ORCA-job run
  C   -0.25894323184699     -0.12445906583298     -0.18612392446163
  C   -0.23928290084965     -0.09282165077845      1.19476965180355
  Cl  2.16394921992607      0.13718909205036     -0.99540616120581
  Cl  -3.13033838709047      0.43636398653923      1.59104212621065
  H   -1.56987368890366      0.06765125772752      1.23252293687394
  H   -0.35384569618629      0.83262810701672     -0.68860111158155
  H   -0.13157275247217     -1.04844965371330      1.71147750381223
  C   -0.67978242500724     -1.33251344174750     -0.94902952679204
  H   -0.24816521460529     -1.31015468270571     -1.94792876963081
  H   -0.36176841881213     -2.24669591079384     -0.44621892216327
  H   -1.77465422129368     -1.33660807266404     -1.03204233457921
  N   0.30038151490664      1.04368186363054      1.89558060923183
  H   -0.40884301117166      1.75711358937394      2.01532963984772
  H   1.05866921340651      1.41434558189749      1.33095528263440
