14
Coordinates from ORCA-job run
  C   -0.26269520080085     -0.12438842393691     -0.18361396528593
  C   -0.23698214407284     -0.09326503461238      1.19352294738987
  Cl  2.16549105745054      0.13764423332041     -0.99611724174501
  Cl  -3.12833149238286      0.43671878667380      1.59141429836666
  H   -1.59774899199480      0.07344163071885      1.23299781295155
  H   -0.35087070177407      0.83246032944712     -0.68746709450380
  H   -0.13673281957100     -1.04812059646123      1.71294409294173
  C   -0.68034955286650     -1.33261017495539     -0.94874930140924
  H   -0.24560455484995     -1.30948106718201     -1.94629697799773
  H   -0.36172550477711     -2.24669068273235     -0.44588997969396
  H   -1.77492318617243     -1.33996311148519     -1.03541665270862
  N   0.29974637038654      1.04337423049049      1.89546701294158
  H   -0.40881745291089      1.75761443578186      2.01484576081260
  H   1.05761517433623      1.41391444493295      1.32987028794030
