14
Coordinates from ORCA-job run
  C   -0.26392788439616     -0.12436925045306     -0.18280639881054
  C   -0.23619251857067     -0.09341239554308      1.19312849004978
  Cl  2.16601504219495      0.13778578648873     -0.99635827049972
  Cl  -3.12786237303909      0.43682855487577      1.59157757811529
  H   -1.60715785353409      0.07539485277916      1.23322223090868
  H   -0.34986934686748      0.83239050587141     -0.68712204541855
  H   -0.13840321893894     -1.04800368388328      1.71344830968669
  C   -0.68052652133227     -1.33264863085352     -0.94867614790428
  H   -0.24473854887941     -1.30926306813016     -1.94577207956675
  H   -0.36170141790600     -2.24669439763691     -0.44579830778069
  H   -1.77499717763492     -1.34107993267487     -1.03656106856683
  N   0.29958997496037      1.04327764414843      1.89542913126948
  H   -0.40875910891904      1.75778093893498      2.01468332600476
  H   1.05731595286275      1.41378607607640      1.32951225251268
