14

C -0.267854 -0.124381 -0.180129
C -0.233633 -0.093938 1.191896
Cl 2.167830 0.138445 -0.997368
Cl -3.126993 0.437584 1.592121
H -1.636164 0.081425 1.233782
H -0.346776 0.832074 -0.685816
H -0.143411 -1.047649 1.715069
C -0.681043 -1.332802 -0.948418
H -0.242111 -1.308180 -1.944123
H -0.361270 -2.246734 -0.445676
H -1.775207 -1.345031 -1.039974
N 0.299334 1.042863 1.895259
H -0.408307 1.758209 2.014198
H 1.056535 1.413265 1.328268
