14

C -0.262394 -0.124395 -0.183323
C -0.237689 -0.093258 1.193203
Cl 2.165948 0.138136 -0.996634
Cl -3.127281 0.437695 1.592140
H -1.589491 0.071718 1.231991
H -0.351432 0.832607 -0.686527
H -0.136157 -1.048310 1.712196
C -0.680166 -1.332529 -0.948580
H -0.245936 -1.308894 -1.946310
H -0.361145 -2.246611 -0.445998
H -1.774893 -1.340314 -1.034425
N 0.299554 1.043028 1.895150
H -0.408885 1.757334 2.014821
H 1.057326 1.413313 1.329412
