14
Coordinates from ORCA-job run
  C   -0.26145384819407     -0.12440998036251     -0.18443598455852
  C   -0.23776106064458     -0.09311764690507      1.19392834877215
  Cl  2.16497223304793      0.13749762985074     -0.99587792686255
  Cl  -3.12889879536438      0.43660469074739      1.59126899464254
  H   -1.58839421268380      0.07149824341398      1.23280528587597
  H   -0.35186767413037      0.83252287628630     -0.68782826169640
  H   -0.13503790277807     -1.04823474470476      1.71244678088543
  C   -0.68016737560983     -1.33257538564291     -0.94883172739383
  H   -0.24646507657258     -1.30970149377438     -1.94683102858515
  H   -0.36174478081635     -2.24669031706957     -0.44599087475061
  H   -1.77484195136222     -1.33884482786599     -1.03428126308076
  N   0.29992983731754      1.04347361528129      1.89550495683597
  H   -0.40885138257272      1.75744767217800      2.01500730986571
  H   1.05794099036349      1.41404966856749      1.33023139005006
