16

C         -0.16387        0.00000       -0.28450
C         -0.15210        0.00000        1.17814
F          1.53938        0.00000       -1.19589
F         -2.69601        0.00000        1.17164
H         -1.47356        0.00000        1.32401
N         -0.74025        1.21856       -0.87921
H         -0.09037        2.02885       -0.76771
H         -1.67944        1.45129       -0.48521
N          0.53760        1.19696        1.69191
H          0.56684        1.14817        2.73598
H         -0.02872        2.04777        1.47672
C          0.59465       -1.24836        1.72243
H          1.65181       -1.25433        1.38065
H          0.57913       -1.23886        2.83293
H          0.10040       -2.18720        1.39621
H         -0.72499       -0.88805       -0.65922
15

C         -0.16387        0.00000       -0.28450
C         -0.15210        0.00000        1.17814
F          1.53938        0.00000       -1.19589
F         -2.69601        0.00000        1.17164
H         -1.47356        0.00000        1.32401
C         -0.87842       -1.17313       -0.84463
N         -1.43412       -2.08911       -1.28155
N          0.53760        1.19696        1.69191
H          0.56684        1.14817        2.73598
H         -0.02872        2.04777        1.47672
C          0.59465       -1.24836        1.72243
H          1.65181       -1.25433        1.38065
H          0.57913       -1.23886        2.83293
H          0.10040       -2.18720        1.39621
H         -0.66792        0.92108       -0.66000
15

C         -0.16387        0.00000       -0.28450
C         -0.15210        0.00000        1.17814
F          1.53938        0.00000       -1.19589
F         -2.69601        0.00000        1.17164
H         -1.47356        0.00000        1.32401
C         -0.87842       -1.17313       -0.84463
N         -1.43412       -2.08911       -1.28155
N         -0.74025        1.21856       -0.87921
H         -0.09037        2.02885       -0.76771
H         -1.67944        1.45129       -0.48521
C          0.59465       -1.24836        1.72243
H          1.65181       -1.25433        1.38065
H          0.57913       -1.23886        2.83293
H          0.10040       -2.18720        1.39621
H          0.42209        0.89913        1.52822
14

C         -0.16387        0.00000       -0.28450
C         -0.15210        0.00000        1.17814
F          1.53938        0.00000       -1.19589
F         -2.69601        0.00000        1.17164
H         -1.47356        0.00000        1.32401
C         -0.87842       -1.17313       -0.84463
N         -1.43412       -2.08911       -1.28155
N         -0.74025        1.21856       -0.87921
H         -0.09037        2.02885       -0.76771
H         -1.67944        1.45129       -0.48521
N          0.53760        1.19696        1.69191
H          0.56684        1.14817        2.73598
H         -0.02872        2.04777        1.47672
H          0.42522       -0.90203        1.51713
18

C         -0.16387        0.00000       -0.28450
C         -0.15210        0.00000        1.17814
F          1.53938        0.00000       -1.19589
F         -2.69601        0.00000        1.17164
H         -1.47356        0.00000        1.32401
N         -0.74025        1.21856       -0.87921
H         -0.09037        2.02885       -0.76771
H         -1.67944        1.45129       -0.48521
N          0.53760        1.19696        1.69191
H          0.56684        1.14817        2.73598
H         -0.02872        2.04777        1.47672
C          0.59465       -1.24836        1.72243
H          1.65181       -1.25433        1.38065
H          0.57913       -1.23886        2.83293
H          0.10040       -2.18720        1.39621
N         -0.82773       -1.15436       -0.90002
O         -1.58679       -1.98063       -0.21076
O         -0.75100       -1.30127       -2.08229
17

C         -0.16387        0.00000       -0.28450
C         -0.15210        0.00000        1.17814
F          1.53938        0.00000       -1.19589
F         -2.69601        0.00000        1.17164
H         -1.47356        0.00000        1.32401
C         -0.87842       -1.17313       -0.84463
N         -1.43412       -2.08911       -1.28155
N          0.53760        1.19696        1.69191
H          0.56684        1.14817        2.73598
H         -0.02872        2.04777        1.47672
C          0.59465       -1.24836        1.72243
H          1.65181       -1.25433        1.38065
H          0.57913       -1.23886        2.83293
H          0.10040       -2.18720        1.39621
N         -0.73306        1.22781       -0.84658
O         -2.00866        1.51792       -0.70779
O         -0.04216        1.96600       -1.48092
17

C         -0.16387        0.00000       -0.28450
C         -0.15210        0.00000        1.17814
F          1.53938        0.00000       -1.19589
F         -2.69601        0.00000        1.17164
H         -1.47356        0.00000        1.32401
C         -0.87842       -1.17313       -0.84463
N         -1.43412       -2.08911       -1.28155
N         -0.74025        1.21856       -0.87921
H         -0.09037        2.02885       -0.76771
H         -1.67944        1.45129       -0.48521
C          0.59465       -1.24836        1.72243
H          1.65181       -1.25433        1.38065
H          0.57913       -1.23886        2.83293
H          0.10040       -2.18720        1.39621
N          0.52544        1.19133        1.67648
O          1.78760        1.42255        1.38034
O         -0.06742        1.96239        2.36766
16

C         -0.16387        0.00000       -0.28450
C         -0.15210        0.00000        1.17814
F          1.53938        0.00000       -1.19589
F         -2.69601        0.00000        1.17164
H         -1.47356        0.00000        1.32401
C         -0.87842       -1.17313       -0.84463
N         -1.43412       -2.08911       -1.28155
N         -0.74025        1.21856       -0.87921
H         -0.09037        2.02885       -0.76771
H         -1.67944        1.45129       -0.48521
N          0.53760        1.19696        1.69191
H          0.56684        1.14817        2.73598
H         -0.02872        2.04777        1.47672
N          0.52016       -1.18447        1.73190
O          0.50622       -1.38105        3.03261
O          1.09386       -1.96758        1.03442
16

C         -0.16387        0.00000       -0.28450
C         -0.15210        0.00000        1.17814
F          1.53938        0.00000       -1.19589
F         -2.69601        0.00000        1.17164
H         -1.47356        0.00000        1.32401
C         -0.87842       -1.17313       -0.84463
N         -1.43412       -2.08911       -1.28155
N          0.53760        1.19696        1.69191
H          0.56684        1.14817        2.73598
H         -0.02872        2.04777        1.47672
C          0.59465       -1.24836        1.72243
H          1.65181       -1.25433        1.38065
H          0.57913       -1.23886        2.83293
H          0.10040       -2.18720        1.39621
C         -0.85782        1.19286       -0.82474
N         -1.39936        2.12390       -1.25152
16

C         -0.16387        0.00000       -0.28450
C         -0.15210        0.00000        1.17814
F          1.53938        0.00000       -1.19589
F         -2.69601        0.00000        1.17164
H         -1.47356        0.00000        1.32401
C         -0.87842       -1.17313       -0.84463
N         -1.43412       -2.08911       -1.28155
N         -0.74025        1.21856       -0.87921
H         -0.09037        2.02885       -0.76771
H         -1.67944        1.45129       -0.48521
C          0.59465       -1.24836        1.72243
H          1.65181       -1.25433        1.38065
H          0.57913       -1.23886        2.83293
H          0.10040       -2.18720        1.39621
C          0.51689        1.21285        1.73530
N          1.03025        2.14403        2.19213
15

C         -0.16387        0.00000       -0.28450
C         -0.15210        0.00000        1.17814
F          1.53938        0.00000       -1.19589
F         -2.69601        0.00000        1.17164
H         -1.47356        0.00000        1.32401
C         -0.87842       -1.17313       -0.84463
N         -1.43412       -2.08911       -1.28155
N         -0.74025        1.21856       -0.87921
H         -0.09037        2.02885       -0.76771
H         -1.67944        1.45129       -0.48521
N          0.53760        1.19696        1.69191
H          0.56684        1.14817        2.73598
H         -0.02872        2.04777        1.47672
C          0.56024       -1.20795        1.69026
N          1.10996       -2.14030        2.09904
19

C         -0.16387        0.00000       -0.28450
C         -0.15210        0.00000        1.17814
F          1.53938        0.00000       -1.19589
F         -2.69601        0.00000        1.17164
H         -1.47356        0.00000        1.32401
N         -0.74025        1.21856       -0.87921
H         -0.09037        2.02885       -0.76771
H         -1.67944        1.45129       -0.48521
N          0.53760        1.19696        1.69191
H          0.56684        1.14817        2.73598
H         -0.02872        2.04777        1.47672
C          0.59465       -1.24836        1.72243
H          1.65181       -1.25433        1.38065
H          0.57913       -1.23886        2.83293
H          0.10040       -2.18720        1.39621
C         -0.85272       -1.22080       -0.95132
H         -1.92768       -1.28999       -0.69358
H         -0.77993       -1.11718       -2.05475
H         -0.35136       -2.17545       -0.70358
18

C         -0.16387        0.00000       -0.28450
C         -0.15210        0.00000        1.17814
F          1.53938        0.00000       -1.19589
F         -2.69601        0.00000        1.17164
H         -1.47356        0.00000        1.32401
C         -0.87842       -1.17313       -0.84463
N         -1.43412       -2.08911       -1.28155
N          0.53760        1.19696        1.69191
H          0.56684        1.14817        2.73598
H         -0.02872        2.04777        1.47672
C          0.59465       -1.24836        1.72243
H          1.65181       -1.25433        1.38065
H          0.57913       -1.23886        2.83293
H          0.10040       -2.18720        1.39621
C         -0.78546        1.26782       -0.93289
H         -1.84322        1.41646       -0.63393
H         -0.75253        1.17638       -2.04021
H         -0.20395        2.17864       -0.68768
18

C         -0.16387        0.00000       -0.28450
C         -0.15210        0.00000        1.17814
F          1.53938        0.00000       -1.19589
F         -2.69601        0.00000        1.17164
H         -1.47356        0.00000        1.32401
C         -0.87842       -1.17313       -0.84463
N         -1.43412       -2.08911       -1.28155
N         -0.74025        1.21856       -0.87921
H         -0.09037        2.02885       -0.76771
H         -1.67944        1.45129       -0.48521
C          0.59465       -1.24836        1.72243
H          1.65181       -1.25433        1.38065
H          0.57913       -1.23886        2.83293
H          0.10040       -2.18720        1.39621
C          0.57519        1.25000        1.74615
H          0.03973        2.18275        1.47573
H          0.58964        1.20616        2.85585
H          1.62210        1.30534        1.37661
18

C         -0.16387        0.00000       -0.28450
C         -0.15210        0.00000        1.17814
F          1.53938        0.00000       -1.19589
F         -2.69601        0.00000        1.17164
H         -1.47356        0.00000        1.32401
N         -0.74025        1.21856       -0.87921
H         -0.09037        2.02885       -0.76771
H         -1.67944        1.45129       -0.48521
N          0.53760        1.19696        1.69191
H          0.56684        1.14817        2.73598
H         -0.02872        2.04777        1.47672
C          0.59465       -1.24836        1.72243
H          1.65181       -1.25433        1.38065
H          0.57913       -1.23886        2.83293
H          0.10040       -2.18720        1.39621
N         -0.80907       -1.19492       -0.84942
H         -1.83101       -1.21426       -0.64615
H         -0.69389       -1.18066       -1.88838
16

C         -0.16387        0.00000       -0.28450
C         -0.15210        0.00000        1.17814
F          1.53938        0.00000       -1.19589
F         -2.69601        0.00000        1.17164
H         -1.47356        0.00000        1.32401
C         -0.87842       -1.17313       -0.84463
N         -1.43412       -2.08911       -1.28155
N         -0.74025        1.21856       -0.87921
H         -0.09037        2.02885       -0.76771
H         -1.67944        1.45129       -0.48521
N          0.53760        1.19696        1.69191
H          0.56684        1.14817        2.73598
H         -0.02872        2.04777        1.47672
N          0.55484       -1.19409        1.67260
H         -0.00802       -2.04765        1.45809
H          0.60967       -1.15290        2.71445
