18

C         -0.16387        0.00000       -0.28450
C         -0.15210        0.00000        1.17814
F          1.53938        0.00000       -1.19589
F         -2.69601        0.00000        1.17164
H         -1.47356        0.00000        1.32401
N         -0.74025        1.21856       -0.87921
H         -0.09037        2.02885       -0.76771
H         -1.67944        1.45129       -0.48521
N          0.53760        1.19696        1.69191
H          0.56684        1.14817        2.73598
H         -0.02872        2.04777        1.47672
C          0.59465       -1.24836        1.72243
H          1.65181       -1.25433        1.38065
H          0.57913       -1.23886        2.83293
H          0.10040       -2.18720        1.39621
N         -0.82773       -1.15436       -0.90002
O         -1.58679       -1.98063       -0.21076
O         -0.75100       -1.30127       -2.08229
