18

C         -0.16387        0.00000       -0.28450
C         -0.15210        0.00000        1.17814
F          1.53938        0.00000       -1.19589
F         -2.69601        0.00000        1.17164
H         -1.47356        0.00000        1.32401
C         -0.87842       -1.17313       -0.84463
N         -1.43412       -2.08911       -1.28155
N          0.53760        1.19696        1.69191
H          0.56684        1.14817        2.73598
H         -0.02872        2.04777        1.47672
C          0.59465       -1.24836        1.72243
H          1.65181       -1.25433        1.38065
H          0.57913       -1.23886        2.83293
H          0.10040       -2.18720        1.39621
C         -0.78546        1.26782       -0.93289
H         -1.84322        1.41646       -0.63393
H         -0.75253        1.17638       -2.04021
H         -0.20395        2.17864       -0.68768
