18

C         -0.16387        0.00000       -0.28450
C         -0.15210        0.00000        1.17814
F          1.53938        0.00000       -1.19589
F         -2.69601        0.00000        1.17164
H         -1.47356        0.00000        1.32401
C         -0.87842       -1.17313       -0.84463
N         -1.43412       -2.08911       -1.28155
N         -0.74025        1.21856       -0.87921
H         -0.09037        2.02885       -0.76771
H         -1.67944        1.45129       -0.48521
C          0.59465       -1.24836        1.72243
H          1.65181       -1.25433        1.38065
H          0.57913       -1.23886        2.83293
H          0.10040       -2.18720        1.39621
C          0.57519        1.25000        1.74615
H          0.03973        2.18275        1.47573
H          0.58964        1.20616        2.85585
H          1.62210        1.30534        1.37661
