14

C -0.272222 -0.124369 -0.177573
C -0.230389 -0.094482 1.190850
Cl 2.169336 0.138691 -0.997956
Cl -3.126763 0.437496 1.592105
H -1.673502 0.089189 1.235216
H -0.343050 0.831648 -0.685246
H -0.149213 -1.047121 1.717367
C -0.681745 -1.333020 -0.948288
H -0.239051 -1.307610 -1.942373
H -0.361370 -2.246834 -0.445420
H -1.775459 -1.348803 -1.044412
N 0.299158 1.042731 1.895345
H -0.407845 1.758909 2.013700
H 1.055903 1.413225 1.327354
