14
Coordinates from ORCA-job run
  C   -0.27234928833184     -0.12430133882062     -0.17755190910467
  C   -0.23042269916246     -0.09444717100384      1.19064607067914
  Cl  2.16975562221010      0.13868837820596     -0.99805615530969
  Cl  -3.12723236797859      0.43755858743660      1.59319701737542
  H   -1.67414695567528      0.08928865877040      1.23559326003448
  H   -0.34278509925299      0.83170442640192     -0.68516216306010
  H   -0.14947555233090     -1.04709215116353      1.71719065443675
  C   -0.68161344420830     -1.33299788590221     -0.94843045658303
  H   -0.23852950940988     -1.30782892616968     -1.94234166408820
  H   -0.36142618154593     -2.24678318702807     -0.44537187592582
  H   -1.77531832718589     -1.34886627100568     -1.04483329945360
  N   0.29918605033813      1.04268593253481      1.89516753471939
  H   -0.40775264281985      1.75892761565695      2.01351272921642
  H   1.05589839535369      1.41311333208699      1.32710925706351
