14

C -0.274406 -0.124364 -0.176296
C -0.228767 -0.094754 1.190327
Cl 2.170089 0.138815 -0.998249
Cl -3.126648 0.437451 1.592098
H -1.692171 0.093072 1.235932
H -0.341188 0.831435 -0.684962
H -0.152115 -1.046857 1.718516
C -0.682096 -1.333130 -0.948223
H -0.237521 -1.307324 -1.941499
H -0.361420 -2.246883 -0.445291
H -1.775585 -1.350690 -1.046632
N 0.299070 1.042665 1.895389
H -0.407614 1.759259 2.013451
H 1.055587 1.413206 1.326896
