13
reactant -1
C -0.135963 -0.126667 -0.243549
C -0.09356 -0.221196 1.276328
Cl 1.548105 0.197749 -0.86217
H -1.075369 -0.585596 1.586459
H -0.730786 0.741673 -0.520302
H 0.664312 -0.961709 1.563203
C -0.678663 -1.375265 -0.900885
H -0.629431 -1.306463 -1.989372
H -0.122003 -2.261518 -0.581526
H -1.726524 -1.473491 -0.606808
N 0.139465 1.027039 1.985521
H -0.690524 1.594264 1.826196
H 0.926371 1.504168 1.559775
