14
Coordinates from ORCA-job run
  C   -0.26020354733167     -0.12443311123787     -0.18527245863582
  C   -0.23852822365500     -0.09296970089545      1.19434402349402
  Cl  2.16445737847782      0.13734572950221     -0.99564027599835
  Cl  -3.12956731634828      0.43648735672905      1.59114505920858
  H   -1.57910087759784      0.06956828103070      1.23264645290677
  H   -0.35286036065972      0.83257900211533     -0.68820655881429
  H   -0.13331784894349     -1.04834394286019      1.71195871226900
  C   -0.67997800408776     -1.33254293400155     -0.94892506217957
  H   -0.24731869660866     -1.30992632509739     -1.94737495349979
  H   -0.36175927292922     -2.24669181239872     -0.44610018939490
  H   -1.77475219085377     -1.33772667484482     -1.03315680616088
  N   0.30014122225149      1.04357641204884      1.89554301663030
  H   -0.40886025876239      1.75728077058158      2.01516945974663
  H   1.05829199704848      1.41419394932828      1.33059358042829
